---- qbsp / ericw-tools 2.0.0-alpha5 ----
Input file: C:\Users\kalle\Documents\devel\ld56\assets\maps\test.map
Output file: C:\Users\kalle\Documents\devel\ld56\assets\maps\test.bsp

INFO: using built-in palette.
---- LoadMapFile ----
WARNING: No wad or _wad key exists in the worldmodel
     7 entities
     3 unique textures
    12 texinfos
    14 unique planes

---- ProcessMapBrushes ----
INFO: world extents calculated to 840 units
     2 brushes
    12 sides

            0 texture frames added
WARNING: unable to find texture skip
Processing hull 0...
---- Brush_LoadEntity ----
---- CountBrushes ----
    2 SOLID brushes
    2 brushes total
    12 visible sides
INFO: calculating BSP for 2 brushes with 12 sides
---- BrushBSP ----
     2 brushes
    12 visible faces
    11 nodes
    11 expensive split nodes
    12 leaves
---- CountLeafs ----
    10 EMPTY leafs
     2 SOLID leafs
    12 leafs total
    7 max tree height
    5 avg tree height
---- MakeTreePortals ----
---- CalcTreeBounds ----
    57 tree portals
---- FillOutside ----
WARNING: Reached occupant "Test_Entity" at (-88 -136 24), no filling performed.
Leak file written to test.pts
---- WriteDebugPortals ----
            1 portals written to test.leak.prt
---- MakeTreePortals ----
---- CalcTreeBounds ----
    57 tree portals
---- MarkVisibleSides ----
    10 sides visible
---- MakeFaces ----
    10 makefaces
    20 subdivided
---- PruneNodes ----
---- CountLeafs ----
    10 EMPTY leafs
     2 SOLID leafs
    12 leafs total
    7 max tree height
    5 avg tree height
---- TJunc ----
    12 edges added by tjunctions
    30 faces optimized through MWT
    72 triangles computed from MWT
---- EmitFaces ----
    66 edges
    30 faces
Processing hull 1...
WARNING: No entities in empty space -- no filling performed (hull 1)
Processing hull 2...
WARNING: No entities in empty space -- no filling performed (hull 2)
---- FinishBSPFile ----
Writing test.bsp as Quake BSP2 bsp2
Wrote test.bsp

count   lump name    byte size 
      1 models               64
     20 planes              400
     38 vertexes            456
     11 nodes               484
     10 texinfos            400
     30 faces               840
     22 clipnodes           264
     11 leafs               484
     30 marksurfaces        120
     67 edges               536
    132 surfedges           528
      3 textures             96
        lightdata             0
        visdata               0
        entdata             368

0.004s seconds elapsed
